Version 4
SHEET 1 880 680
WIRE 160 144 160 96
FLAG 160 144 0
