Version 4
SHEET 1 880 680
WIRE 112 128 112 64
WIRE 112 288 112 192
SYMBOL cap 96 128 R0
SYMATTR InstName C1
