Version 4
SHEET 1 880 680
SYMBOL voltage 512 80 R0
SYMATTR InstName V1
