Version 4
SHEET 1 524 900
WIRE 160 624 160 544
WIRE 144 880 144 864
WIRE 304 880 144 880
WIRE 464 880 384 880
FLAG 64 240 1
SYMBOL diode 144 480 R0
SYMBOL res 304 288 R270
SYMBOL res 288 896 R270
SYMBOL res 304 608 R270
SYMBOL cap 448 816 R0
SYMBOL cap 464 672 R0
SYMBOL ind 304 752 R270
SYMBOL ind 304 448 R270
SYMATTR Value 20
SYMBOL voltage 160 608 R0
SYMBOL voltage 480 496 R0
SYMBOL current 144 784 R0
SYMBOL cap -128 512 R0
SYMATTR InstName C1
SYMATTR Value 3
