Version 4
SHEET 1 880 680
WIRE 100 100 150 100
SYMBOL res 246 84 R90
