Version 4
SHEET 1 880 680
WIRE 112 64  112 32
WIRE 112 128 112 200
SYMBOL cap 128 128 R180
SYMATTR InstName C1
