Version 4
SHEET 1 880 680
FLAG 224 224 R0
SYMATTR InstName D1
